Circuit: * C:\Users\duicu\Documents\GitHub\biron\LTSpice\Baxandall.asc

WARNING: Node N008 is floating.

Instance "m:m1:r": Length shorter than recommended for a level 1 MOSFET.
Instance "m:m1:r": Width narrower than recommended for a level 1 MOSFET.
Instance "m:m3:r": Length shorter than recommended for a level 1 MOSFET.
Instance "m:m3:r": Width narrower than recommended for a level 1 MOSFET.
Instance "m:m1:1": Width narrower than recommended for a level 3 MOSFET.
Instance "m:m3:1": Width narrower than recommended for a level 3 MOSFET.
.OP point found by inspection.

Date: Tue Mar 14 00:20:15 2023
Total elapsed time: 12.909 seconds.

tnom = 27
temp = 27
method = modified trap
totiter = 2230706
traniter = 2230706
tranpoints = 799112
accept = 548972
rejected = 250140
matrix size = 50
fillins = 38
solver = Normal
Avg thread counts: 1.0/1.0/1.0/1.0
Matrix Compiler1: 6.49 KB object code size  1.1/0.7/[0.6]
Matrix Compiler2: 5.19 KB object code size  0.3/0.5/[0.3]

